Version 4.1
SHEET 1 880 680
WIRE 352 128 288 128
SYMBOL OpAmps\\OP07 256 208 R180
SYMATTR InstName U1
